Version 4
SHEET 1 1240 680
WIRE 224 -32 64 -32
WIRE 400 -32 304 -32
WIRE 784 -16 608 -16
WIRE 1024 -16 864 -16
WIRE 352 32 256 32
WIRE 912 32 816 32
WIRE 352 48 352 32
WIRE 912 48 912 32
WIRE 256 64 256 32
WIRE -32 80 -176 80
WIRE 64 80 64 -32
WIRE 64 80 32 80
WIRE 96 80 64 80
WIRE 224 80 160 80
WIRE 816 80 816 32
WIRE 400 96 400 -32
WIRE 400 96 288 96
WIRE 512 96 400 96
WIRE 608 96 608 -16
WIRE 608 96 576 96
WIRE 704 96 672 96
WIRE 784 96 704 96
WIRE -176 112 -176 80
WIRE 224 112 176 112
WIRE 1024 112 1024 -16
WIRE 1024 112 848 112
WIRE 1136 112 1024 112
WIRE 704 128 704 96
WIRE 784 128 768 128
WIRE -176 208 -176 192
WIRE 480 224 480 192
WIRE 528 224 480 224
WIRE 624 224 608 224
WIRE 176 240 176 192
WIRE 704 240 704 208
WIRE 768 256 768 128
WIRE 1136 256 1136 112
WIRE 1136 256 768 256
WIRE 624 272 624 224
WIRE 480 336 480 304
WIRE 480 336 416 336
WIRE 576 336 480 336
WIRE 480 352 480 336
WIRE 576 368 576 336
WIRE 480 480 480 432
WIRE 576 480 576 432
WIRE 576 480 480 480
WIRE 480 512 480 480
FLAG 1136 112 OUT
FLAG -176 80 IN
FLAG 816 144 9
FLAG 704 240 AGND
FLAG 176 240 AGND
FLAG -176 208 0
FLAG 912 48 0
FLAG 352 48 0
FLAG 256 128 9
FLAG 624 272 0
FLAG 416 336 9
FLAG 480 512 0
FLAG 480 192 AGND
SYMBOL cap 32 64 R90
WINDOW 0 0 32 VBottom 2
WINDOW 3 32 32 VTop 2
SYMATTR InstName C1
SYMATTR Value 1.21n
SYMATTR SpiceLine V=6.3 Irms=30.8m Rser=3.04503 Lser=0 mfg="KEMET" pn="C0402C122K9RAC" type="X7R"
SYMBOL cap 96 96 R270
WINDOW 0 32 32 VTop 2
WINDOW 3 0 32 VBottom 2
SYMATTR InstName C2
SYMATTR Value 953p
SYMATTR SpiceLine V=25 Irms=0 Rser=0 Lser=0
SYMBOL res 320 -48 R90
WINDOW 0 0 56 VBottom 2
WINDOW 3 32 56 VTop 2
SYMATTR InstName R1
SYMATTR Value 10.2K
SYMATTR SpiceLine tol=1 pwr=0.1
SYMBOL Opamps\\OP27 256 160 M180
SYMATTR InstName U1
SYMBOL res 160 96 R0
SYMATTR InstName R2
SYMATTR Value 11.3K
SYMATTR SpiceLine tol=1 pwr=0.1
SYMBOL cap 576 80 R90
WINDOW 0 0 32 VBottom 2
WINDOW 3 32 32 VTop 2
SYMATTR InstName C3
SYMATTR Value 1.78n
SYMATTR SpiceLine V=6.3 Irms=46m Rser=2.21949 Lser=0
SYMBOL cap 672 80 R90
WINDOW 0 0 32 VBottom 2
WINDOW 3 32 32 VTop 2
SYMATTR InstName C4
SYMATTR Value 1.47n
SYMATTR SpiceLine V=6.3 Irms=38.4m Rser=2.57238 Lser=0
SYMBOL Opamps\\OP27 816 176 M180
WINDOW 0 27 52 Left 2
SYMATTR InstName U2
SYMBOL res 880 -32 R90
WINDOW 0 0 56 VBottom 2
WINDOW 3 32 56 VTop 2
SYMATTR InstName R3
SYMATTR Value 4.87K
SYMATTR SpiceLine tol=1 pwr=0.1
SYMBOL res 688 112 R0
SYMATTR InstName R4
SYMATTR Value 12.7K
SYMATTR SpiceLine tol=1 pwr=0.1
SYMBOL Misc\\signal -176 96 R0
WINDOW 123 24 132 Left 2
WINDOW 39 0 0 Left 0
SYMATTR InstName V1
SYMATTR Value SINE(4.5 0.01 40K)
SYMBOL voltage 480 336 R0
WINDOW 123 0 0 Left 0
WINDOW 39 0 0 Left 0
SYMATTR InstName V3
SYMATTR Value 9
SYMBOL res 464 208 R0
SYMATTR InstName R5
SYMATTR Value 49.9K
SYMATTR SpiceLine tol=1 pwr=0.1
SYMBOL res 624 208 R90
WINDOW 0 0 56 VBottom 2
WINDOW 3 32 56 VTop 2
SYMATTR InstName R6
SYMATTR Value 49.9K
SYMATTR SpiceLine tol=1 pwr=0.1
SYMBOL cap 560 368 R0
SYMATTR InstName C5
SYMATTR Value 1µ
TEXT -210 312 Left 2 !;.ac oct 100 100 50000
TEXT -184 408 Left 2 !.tran 0.05
