Version 4
SHEET 1 2088 680
WIRE -336 -464 -352 -464
WIRE -432 -384 -432 -464
WIRE -432 -384 -544 -384
WIRE -336 -384 -336 -464
WIRE 144 -352 80 -352
WIRE -192 -320 -320 -320
WIRE -320 -272 -320 -320
WIRE -288 -272 -320 -272
WIRE -192 -256 -192 -320
WIRE -192 -256 -224 -256
WIRE -176 -256 -192 -256
WIRE -96 -256 -112 -256
WIRE 0 -256 0 -352
WIRE 0 -256 -16 -256
WIRE 32 -256 0 -256
WIRE -528 -240 -544 -240
WIRE -432 -240 -432 -384
WIRE -432 -240 -448 -240
WIRE -288 -240 -432 -240
WIRE 144 -240 144 -352
WIRE 144 -240 96 -240
WIRE 256 -240 144 -240
WIRE 32 -224 16 -224
WIRE 592 -224 496 -224
WIRE 928 -224 848 -224
WIRE -544 -192 -544 -240
WIRE 256 -176 224 -176
WIRE -544 -80 -544 -112
WIRE 224 -80 224 -176
FLAG -544 -80 0
FLAG -544 -240 9V
FLAG -544 -384 HydroOut
IOPIN -544 -384 In
FLAG -336 -384 0
FLAG -256 -224 0
FLAG 64 -208 0
FLAG -256 -288 9V
FLAG 64 -272 9V
FLAG 256 -272 AGND
FLAG 256 -208 9V
FLAG 224 -80 0
FLAG 768 -128 0
FLAG 656 -128 AGND
FLAG 672 -320 9V
FLAG 768 -320 9V
FLAG 720 -320 9V
FLAG 624 -320 0
FLAG 16 -224 AGND
FLAG -272 144 9V
FLAG -128 80 0
FLAG -128 144 AGND
FLAG -336 80 0
FLAG 928 -224 AMP_OUT
SYMBOL voltage -544 -208 R0
WINDOW 123 0 0 Left 0
WINDOW 39 0 0 Left 0
SYMATTR InstName V1
SYMATTR Value 9
SYMBOL res -432 -256 R90
WINDOW 0 0 56 VBottom 2
WINDOW 3 32 56 VTop 2
SYMATTR InstName R2
SYMATTR Value 4.7k
SYMATTR SpiceLine tol=1 pwr=0.1
SYMBOL Opamps\\OP27 -256 -320 R0
SYMATTR InstName U1
SYMBOL cap -112 -272 R90
WINDOW 0 0 32 VBottom 2
WINDOW 3 32 32 VTop 2
SYMATTR InstName C2
SYMATTR Value 5.1n
SYMATTR SpiceLine V=50 Irms=0 Rser=0 Lser=0 mfg="Murata" pn="GCM1885C1H512JA16" type="C0G"
SYMBOL res 0 -272 R90
WINDOW 0 0 56 VBottom 2
WINDOW 3 32 56 VTop 2
SYMATTR InstName R3
SYMATTR Value 10k
SYMATTR SpiceLine tol=1 pwr=0.1
SYMBOL Opamps\\OP27 64 -304 R0
SYMATTR InstName U2
SYMBOL res 96 -368 R90
WINDOW 0 0 56 VBottom 2
WINDOW 3 32 56 VTop 2
SYMATTR InstName R4
SYMATTR Value 10k
SYMATTR SpiceLine tol=1 pwr=0.1
SYMBOL voltage -448 -464 R270
WINDOW 0 32 56 VTop 2
WINDOW 3 -32 56 VBottom 2
WINDOW 123 4 56 VTop 2
WINDOW 39 -24 56 VTop 2
SYMATTR InstName V2
SYMATTR Value SINE(0 50m 22k)
SYMATTR Value2 AC 0.05
SYMATTR SpiceLine Rser=2000
SYMBOL Acoustics_HPF 368 -224 R0
SYMATTR InstName X1
SYMBOL Opamps\\LTC6910-1 704 -224 R0
SYMATTR InstName U3
SYMBOL TLE2426 -176 128 R0
SYMATTR InstName U4
SYMBOL cap -272 64 R90
WINDOW 0 0 32 VBottom 2
WINDOW 3 32 32 VTop 2
SYMATTR InstName C1
SYMATTR Value 1µ
TEXT -696 -24 Left 2 !.ac dec 100 100 100000
