Version 4
SHEET 1 2088 680
WIRE -336 -464 -352 -464
WIRE -432 -384 -432 -464
WIRE -432 -384 -544 -384
WIRE -336 -384 -336 -464
WIRE 688 -368 528 -368
WIRE 944 -368 768 -368
WIRE 144 -352 80 -352
WIRE 1248 -352 1072 -352
WIRE 1488 -352 1328 -352
WIRE -192 -320 -320 -320
WIRE 896 -304 800 -304
WIRE 1376 -304 1280 -304
WIRE 896 -288 896 -304
WIRE 1376 -288 1376 -304
WIRE -320 -272 -320 -320
WIRE -288 -272 -320 -272
WIRE 800 -272 800 -304
WIRE -192 -256 -192 -320
WIRE -192 -256 -224 -256
WIRE -176 -256 -192 -256
WIRE -96 -256 -112 -256
WIRE 0 -256 0 -352
WIRE 0 -256 -16 -256
WIRE 32 -256 0 -256
WIRE 432 -256 400 -256
WIRE 528 -256 528 -368
WIRE 528 -256 496 -256
WIRE 560 -256 528 -256
WIRE 640 -256 624 -256
WIRE 768 -256 640 -256
WIRE 1280 -256 1280 -304
WIRE -528 -240 -544 -240
WIRE -432 -240 -432 -384
WIRE -432 -240 -448 -240
WIRE -288 -240 -432 -240
WIRE 144 -240 144 -352
WIRE 144 -240 96 -240
WIRE 400 -240 400 -256
WIRE 400 -240 144 -240
WIRE 944 -240 944 -368
WIRE 944 -240 832 -240
WIRE 976 -240 944 -240
WIRE 1072 -240 1072 -352
WIRE 1072 -240 1040 -240
WIRE 1168 -240 1136 -240
WIRE 1248 -240 1168 -240
WIRE 32 -224 16 -224
WIRE 640 -224 640 -256
WIRE 768 -224 736 -224
WIRE 1488 -224 1488 -352
WIRE 1488 -224 1312 -224
WIRE 1600 -224 1488 -224
WIRE 368 -208 224 -208
WIRE 1168 -208 1168 -240
WIRE 1248 -208 1232 -208
WIRE -544 -192 -544 -240
WIRE 368 -192 368 -208
WIRE 224 -176 224 -208
WIRE 800 -176 800 -208
WIRE 832 -176 800 -176
WIRE -96 -160 -112 -160
WIRE 16 -160 16 -224
WIRE 16 -160 -16 -160
WIRE 192 -160 16 -160
WIRE 336 -144 256 -144
WIRE 1280 -144 1280 -192
WIRE 1376 -144 1280 -144
WIRE 16 -128 16 -160
WIRE 192 -128 128 -128
WIRE 736 -112 736 -224
WIRE 944 -112 944 -240
WIRE 944 -112 736 -112
WIRE 640 -96 640 -144
WIRE 1168 -96 1168 -128
WIRE -544 -80 -544 -112
WIRE 1232 -80 1232 -208
WIRE 1600 -80 1600 -224
WIRE 1600 -80 1232 -80
WIRE 128 -48 128 -128
WIRE 336 -48 336 -144
WIRE 336 -48 128 -48
FLAG -544 -80 0
FLAG -112 -160 9V
FLAG -544 -240 9V
FLAG 16 -48 0
FLAG -544 -384 HydroOut
IOPIN -544 -384 In
FLAG -336 -384 0
FLAG -256 -224 0
FLAG 64 -208 0
FLAG -256 -288 9V
FLAG 64 -272 9V
FLAG 1600 -224 OUT
FLAG 736 -288 IN
FLAG 1376 -144 9V
FLAG 1168 -96 AGND
FLAG 640 -96 AGND
FLAG 1376 -288 0
FLAG 896 -288 0
FLAG 832 -176 9V
FLAG 224 -112 9V
FLAG 368 -192 0
FLAG 336 -144 AGND
SYMBOL voltage -544 -208 R0
WINDOW 123 0 0 Left 0
WINDOW 39 0 0 Left 0
SYMATTR InstName V1
SYMATTR Value 9
SYMBOL res -432 -256 R90
WINDOW 0 0 56 VBottom 2
WINDOW 3 32 56 VTop 2
SYMATTR InstName R2
SYMATTR Value 4.7k
SYMATTR SpiceLine tol=1 pwr=0.1
SYMBOL Opamps\\OP27 -256 -320 R0
SYMATTR InstName U1
SYMBOL cap -112 -272 R90
WINDOW 0 0 32 VBottom 2
WINDOW 3 32 32 VTop 2
SYMATTR InstName C2
SYMATTR Value 5.1n
SYMATTR SpiceLine V=50 Irms=0 Rser=0 Lser=0 mfg="Murata" pn="GCM1885C1H512JA16" type="C0G"
SYMBOL res 0 -272 R90
WINDOW 0 0 56 VBottom 2
WINDOW 3 32 56 VTop 2
SYMATTR InstName R3
SYMATTR Value 10k
SYMATTR SpiceLine tol=1 pwr=0.1
SYMBOL Opamps\\OP27 64 -304 R0
SYMATTR InstName U2
SYMBOL res 96 -368 R90
WINDOW 0 0 56 VBottom 2
WINDOW 3 32 56 VTop 2
SYMATTR InstName R4
SYMATTR Value 10k
SYMATTR SpiceLine tol=1 pwr=0.1
SYMBOL res 0 -176 R90
WINDOW 0 0 56 VBottom 2
WINDOW 3 32 56 VTop 2
SYMATTR InstName R5
SYMATTR Value 20K
SYMATTR SpiceLine tol=1 pwr=0.1
SYMBOL res 0 -144 R0
SYMATTR InstName R6
SYMATTR Value 20K
SYMATTR SpiceLine tol=1 pwr=0.1
SYMBOL voltage -448 -464 R270
WINDOW 0 32 56 VTop 2
WINDOW 3 -32 56 VBottom 2
WINDOW 123 4 56 VTop 2
WINDOW 39 -24 56 VTop 2
SYMATTR InstName V2
SYMATTR Value SINE(0 50m 22k)
SYMATTR Value2 AC 0.05
SYMATTR SpiceLine Rser=2000
SYMBOL cap 496 -272 R90
WINDOW 0 0 32 VBottom 2
WINDOW 3 32 32 VTop 2
SYMATTR InstName C1
SYMATTR Value 1.21n
SYMATTR SpiceLine V=6.3 Irms=30.8m Rser=3.04503 Lser=0 mfg="KEMET" pn="C0402C122K9RAC" type="X7R"
SYMBOL cap 560 -240 R270
WINDOW 0 32 32 VTop 2
WINDOW 3 0 32 VBottom 2
SYMATTR InstName C3
SYMATTR Value 953p
SYMATTR SpiceLine V=25 Irms=0 Rser=0 Lser=0
SYMBOL res 784 -384 R90
WINDOW 0 0 56 VBottom 2
WINDOW 3 32 56 VTop 2
SYMATTR InstName R1
SYMATTR Value 10.2K
SYMATTR SpiceLine tol=1 pwr=0.1
SYMBOL Opamps\\OP27 800 -176 M180
SYMATTR InstName U3
SYMBOL res 624 -240 R0
SYMATTR InstName R7
SYMATTR Value 11.3K
SYMATTR SpiceLine tol=1 pwr=0.1
SYMBOL cap 1040 -256 R90
WINDOW 0 0 32 VBottom 2
WINDOW 3 32 32 VTop 2
SYMATTR InstName C4
SYMATTR Value 1.78n
SYMATTR SpiceLine V=6.3 Irms=46m Rser=2.21949 Lser=0
SYMBOL cap 1136 -256 R90
WINDOW 0 0 32 VBottom 2
WINDOW 3 32 32 VTop 2
SYMATTR InstName C5
SYMATTR Value 1.47n
SYMATTR SpiceLine V=6.3 Irms=38.4m Rser=2.57238 Lser=0
SYMBOL Opamps\\OP27 1280 -160 M180
WINDOW 0 27 52 Left 2
SYMATTR InstName U4
SYMBOL res 1344 -368 R90
WINDOW 0 0 56 VBottom 2
WINDOW 3 32 56 VTop 2
SYMATTR InstName R8
SYMATTR Value 4.87K
SYMATTR SpiceLine tol=1 pwr=0.1
SYMBOL res 1152 -224 R0
SYMATTR InstName R9
SYMATTR Value 12.7K
SYMATTR SpiceLine tol=1 pwr=0.1
SYMBOL Opamps\\OP27 224 -80 M180
SYMATTR InstName U5
TEXT -696 -24 Left 2 !.tran .2m
