Version 4
SHEET 1 1096 680
WIRE 224 -288 208 -288
WIRE 128 -208 128 -288
WIRE 128 -208 16 -208
WIRE 224 -208 224 -288
WIRE 496 -208 304 -208
WIRE 496 -96 496 -208
WIRE 496 -96 432 -96
WIRE 560 -96 496 -96
WIRE 32 -80 16 -80
WIRE 128 -80 128 -208
WIRE 128 -80 112 -80
WIRE 208 -80 128 -80
WIRE 304 -80 304 -208
WIRE 304 -80 272 -80
WIRE 368 -80 304 -80
WIRE 720 -64 672 -64
WIRE 16 -16 16 -64
WIRE 16 96 16 64
FLAG 16 96 0
FLAG 16 -64 9V
FLAG 16 -208 HydroOut
IOPIN 16 -208 In
FLAG 224 -208 0
FLAG 400 -128 V+
FLAG 400 -64 V-
FLAG 240 160 0
FLAG 400 160 0
FLAG 240 80 V+
FLAG 400 80 V-
SYMBOL voltage 16 -32 R0
WINDOW 123 0 0 Left 0
WINDOW 39 0 0 Left 0
SYMATTR InstName V1
SYMATTR Value 9
SYMBOL voltage 112 -288 R270
WINDOW 0 32 56 VTop 2
WINDOW 3 -32 56 VBottom 2
WINDOW 123 4 56 VTop 2
WINDOW 39 -24 56 VTop 2
SYMATTR InstName V2
SYMATTR Value SINE(3 0.01 22k .05m)
SYMATTR Value2 AC 0.1
SYMATTR SpiceLine Rser=2000
SYMBOL cap 272 -96 R90
WINDOW 0 0 32 VBottom 2
WINDOW 3 32 32 VTop 2
SYMATTR InstName C1
SYMATTR Value 5.1n
SYMBOL res 128 -96 R90
WINDOW 0 0 56 VBottom 2
WINDOW 3 32 56 VTop 2
SYMATTR InstName R1
SYMATTR Value 4.7k
SYMBOL Acoustics_HPF 608 -64 R0
SYMATTR InstName X1
SYMBOL Opamps\\OP27 400 -160 R0
SYMATTR InstName U1
SYMBOL voltage 240 64 R0
WINDOW 123 0 0 Left 0
WINDOW 39 0 0 Left 0
SYMATTR InstName V3
SYMATTR Value 5
SYMBOL voltage 400 64 R0
WINDOW 123 0 0 Left 0
WINDOW 39 0 0 Left 0
SYMATTR InstName V4
SYMATTR Value -5
TEXT -136 152 Left 2 !.tran 1m
